/*--------------------------------*- C++ -*----------------------------------*\
  =========                 |
  \\      /  F ield         | OpenFOAM: The Open Source CFD Toolbox
   \\    /   O peration     | Website:  https://openfoam.org
    \\  /    A nd           | Version:  7
     \\/     M anipulation  |
\*---------------------------------------------------------------------------*/
FoamFile
{
    version     2.0;
    format      ascii;
    class       polyBoundaryMesh;
    location    "constant/polyMesh";
    object      boundary;
}
// * * * * * * * * * * * * * * * * * * * * * * * * * * * * * * * * * * * * * //

3
(
    topPatch
    {
        type            patch;
        nFaces          9040;
        startFace       2055122;
    }
    bottomPatch
    {
        type            patch;
        nFaces          9040;
        startFace       2064162;
    }
    wall
    {
        type            wall;
        inGroups        List<word> 1(wall);
        nFaces          175441;
        startFace       2073202;
    }
)

// ************************************************************************* //
