/*--------------------------------*- C++ -*----------------------------------*\
  =========                 |
  \\      /  F ield         | OpenFOAM: The Open Source CFD Toolbox
   \\    /   O peration     | Website:  https://openfoam.org
    \\  /    A nd           | Version:  7
     \\/     M anipulation  |
\*---------------------------------------------------------------------------*/
FoamFile
{
    version     2.0;
    format      ascii;
    class       polyBoundaryMesh;
    location    "constant/polyMesh";
    object      boundary;
}
// * * * * * * * * * * * * * * * * * * * * * * * * * * * * * * * * * * * * * //

3
(
    topPatch
    {
        type            patch;
        nFaces          9000;
        startFace       734824;
    }
    bottomPatch
    {
        type            patch;
        nFaces          8992;
        startFace       743824;
    }
    wall
    {
        type            wall;
        inGroups        List<word> 1(wall);
        nFaces          51032;
        startFace       752816;
    }
)

// ************************************************************************* //
