/*--------------------------------*- C++ -*----------------------------------*\
  =========                 |
  \\      /  F ield         | OpenFOAM: The Open Source CFD Toolbox
   \\    /   O peration     | Website:  https://openfoam.org
    \\  /    A nd           | Version:  7
     \\/     M anipulation  |
\*---------------------------------------------------------------------------*/
FoamFile
{
    version     2.0;
    format      ascii;
    class       dictionary;
    object      topoSetDict;
}

// * * * * * * * * * * * * * * * * * * * * * * * * * * * * * * * * * * * * * //

actions
(
    {
        name    cylinder;
        type    faceSet;
        action  new;
        source  patchToFace;
        sourceInfo
        {
           name cylinder;
        }
    }
    
    {
        name    bottom_patch_negative;
        type    faceSet;
        action  new;
        source  boxToFace;
        sourceInfo
        {
           box (-0.6 -0.6 0.01) (0.6 0.6 41);
        }
    }
   
    {
        name    top_patch_negative;
        type    faceSet;
        action  new;
        source  boxToFace;
        sourceInfo
        {
           box (-0.6 -0.6 -1) (0.6 0.6 39.99);
        }
    }

);

// ************************************************************************* //
